Version 4
SHEET 1 2028 1336
WIRE -16 -112 -112 -112
WIRE 192 -112 -16 -112
WIRE 256 -112 192 -112
WIRE 384 -112 256 -112
WIRE 528 -112 464 -112
WIRE 224 -48 192 -48
WIRE 256 -48 224 -48
WIRE -112 -32 -112 -112
WIRE -16 -32 -16 -112
WIRE 176 32 64 32
WIRE 320 32 176 32
WIRE 432 32 320 32
WIRE 544 32 432 32
WIRE 64 80 64 32
WIRE 176 80 176 32
WIRE 320 112 320 32
WIRE 432 112 432 32
WIRE 1328 112 1168 112
WIRE 1616 112 1328 112
WIRE -192 144 -240 144
WIRE -16 144 -16 48
WIRE -16 144 -192 144
WIRE 64 144 -16 144
WIRE -112 176 -112 48
WIRE 176 176 176 144
WIRE 176 176 -112 176
WIRE 64 192 64 144
WIRE 176 192 176 176
WIRE -192 208 -192 144
WIRE 1328 240 1328 192
WIRE 176 256 64 256
WIRE 432 256 432 192
WIRE 432 256 176 256
WIRE 544 256 432 256
WIRE 1616 272 1616 112
WIRE 1168 304 1168 192
WIRE -192 320 -192 288
WIRE -112 320 -112 176
WIRE -112 320 -192 320
WIRE 224 320 224 -48
WIRE 224 320 -112 320
WIRE 320 320 320 192
WIRE 320 320 288 320
WIRE 480 320 320 320
WIRE 576 320 544 320
WIRE 736 320 576 320
WIRE 880 320 816 320
WIRE 880 352 880 320
WIRE 1328 352 1328 320
WIRE 1328 352 1232 352
WIRE 64 384 64 256
WIRE 96 384 64 384
WIRE 320 384 320 320
WIRE 320 384 160 384
WIRE 352 384 320 384
WIRE 992 400 944 400
WIRE 1168 400 992 400
WIRE -112 448 -112 320
WIRE 112 448 112 400
WIRE 112 448 -112 448
WIRE 880 480 880 448
WIRE 992 480 992 400
WIRE 1328 480 1328 352
WIRE -112 512 -112 448
WIRE 64 512 -112 512
WIRE 144 512 144 400
WIRE -112 528 -112 512
WIRE 432 592 432 256
WIRE 880 592 880 560
WIRE 880 592 432 592
WIRE 992 592 992 560
WIRE 992 592 880 592
WIRE 1328 608 1328 560
WIRE 1440 608 1328 608
WIRE 896 640 752 640
WIRE 1008 640 992 640
WIRE 1552 656 1504 656
WIRE 576 672 576 320
WIRE 752 720 752 640
WIRE 896 720 896 704
WIRE 992 720 992 640
WIRE 896 752 896 720
WIRE 896 768 896 752
WIRE 1440 784 1440 704
WIRE 576 800 576 752
WIRE 1552 800 1552 656
WIRE 576 816 576 800
WIRE 752 832 752 800
WIRE 784 832 752 832
WIRE 848 832 832 832
WIRE 992 832 992 800
WIRE 992 832 848 832
WIRE 992 848 992 832
WIRE 576 864 576 848
WIRE 752 864 752 832
WIRE 576 912 576 864
WIRE 688 912 576 912
WIRE 704 912 688 912
WIRE 576 944 576 912
WIRE 992 944 992 928
WIRE 1440 944 1440 864
WIRE 1440 944 992 944
WIRE 1552 944 1552 880
WIRE 1552 944 1440 944
WIRE 1616 944 1616 352
WIRE 1616 944 1552 944
WIRE 1552 976 1552 944
WIRE 432 1040 432 592
WIRE 576 1040 576 1024
WIRE 576 1040 432 1040
WIRE 752 1040 752 960
WIRE 752 1040 576 1040
FLAG 544 32 Vcc
IOPIN 544 32 Out
FLAG 528 -112 SYNC
IOPIN 528 -112 Out
FLAG -112 528 0
FLAG -240 144 Vac
IOPIN -240 144 In
FLAG 544 256 VG
IOPIN 544 256 Out
FLAG 352 384 Data
IOPIN 352 384 Out
FLAG 1008 640 DATA_IN
IOPIN 1008 640 Out
FLAG 896 752 0
FLAG 1552 976 0
SYMBOL diode 80 144 R180
WINDOW 0 24 64 Left 2
WINDOW 3 -18 31 Left 2
SYMATTR InstName D1
SYMBOL diode 192 144 R180
WINDOW 0 24 64 Left 2
WINDOW 3 31 31 Left 2
SYMATTR InstName D2
SYMBOL diode 80 256 R180
WINDOW 0 24 64 Left 2
WINDOW 3 -23 31 Left 2
SYMATTR InstName D3
SYMBOL diode 192 256 R180
WINDOW 0 24 64 Left 2
WINDOW 3 37 31 Left 2
SYMATTR InstName D4
SYMBOL voltage -192 192 R0
WINDOW 3 -180 5 Left 2
WINDOW 123 0 0 Left 0
WINDOW 39 0 0 Left 0
SYMATTR Value SINE(0 33 60)
SYMATTR InstName V1
SYMBOL res 0 64 R180
WINDOW 0 36 76 Left 2
WINDOW 3 36 40 Left 2
SYMATTR InstName R44
SYMATTR Value 10k
SYMBOL res 480 -128 R90
WINDOW 0 0 56 VBottom 2
WINDOW 3 32 56 VTop 2
SYMATTR InstName R46
SYMATTR Value 51k
SYMBOL cap 240 -112 R0
WINDOW 0 45 32 Left 2
SYMATTR InstName C34
SYMATTR Value 0.01µ
SYMBOL res -96 64 R180
WINDOW 0 36 76 Left 2
WINDOW 3 36 40 Left 2
SYMATTR InstName R45
SYMATTR Value 51k
SYMBOL res 416 96 R0
SYMATTR InstName R47
SYMATTR Value 10k
SYMBOL SpecialFunctions\\varistor 64 368 R270
WINDOW 0 18 -23 VRight 1
WINDOW 3 -48 -8 VRight 1
SYMATTR InstName RV_VARISTOR
SYMATTR Value Rclamp=1
SYMBOL cap 288 304 R90
WINDOW 0 0 32 VBottom 2
WINDOW 3 32 32 VTop 2
SYMATTR InstName C1
SYMATTR Value 0.01µ
SYMBOL voltage 160 512 R90
WINDOW 123 0 0 Left 0
WINDOW 39 0 0 Left 0
SYMATTR InstName V2
SYMATTR Value 35
SYMBOL res 304 96 R0
SYMATTR InstName R31
SYMATTR Value 10k
SYMBOL diode 480 336 R270
WINDOW 0 32 32 VTop 2
WINDOW 3 -11 72 VBottom 2
SYMATTR InstName D31
SYMATTR Value RF101L2S
SYMBOL res 832 304 R90
WINDOW 0 0 56 VBottom 2
WINDOW 3 -54 56 VTop 2
SYMATTR InstName R32
SYMATTR Value 22.1
SYMBOL npn 944 352 M0
WINDOW 0 95 44 Left 2
SYMATTR InstName Q31
SYMATTR Value SSTA06
SYMBOL pnp 1232 400 R180
WINDOW 0 64 31 Left 2
WINDOW 3 52 60 Left 2
SYMATTR InstName Q33
SYMATTR Value SSTA56
SYMBOL res 1184 208 R180
WINDOW 0 33 78 Left 2
WINDOW 3 48 47 Left 2
SYMATTR InstName R43
SYMATTR Value 1K
SYMBOL res 1344 208 R180
WINDOW 0 -52 61 Left 2
WINDOW 3 -60 34 Left 2
SYMATTR InstName R40
SYMATTR Value 2200
SYMBOL res 1344 336 R180
WINDOW 0 -53 70 Left 2
WINDOW 3 -32 40 Left 2
SYMATTR InstName R42
SYMATTR Value 1K
SYMBOL res 1344 576 R180
WINDOW 0 36 76 Left 2
WINDOW 3 36 40 Left 2
SYMATTR InstName R48
SYMATTR Value 1K
SYMBOL res 768 816 R180
WINDOW 0 36 76 Left 2
WINDOW 3 36 40 Left 2
SYMATTR InstName R36
SYMATTR Value 51K
SYMBOL res 976 704 R0
SYMATTR InstName R38
SYMATTR Value 51K
SYMBOL res 1008 944 R180
WINDOW 0 36 76 Left 2
WINDOW 3 36 40 Left 2
SYMATTR InstName R37
SYMATTR Value 51K
SYMBOL npn 1504 608 M0
WINDOW 0 95 44 Left 2
SYMATTR InstName Q34
SYMATTR Value SSTA06
SYMBOL res 1424 768 R0
WINDOW 0 -48 37 Left 2
WINDOW 3 -63 71 Left 2
SYMATTR InstName R41
SYMATTR Value 2200
SYMBOL voltage 1552 784 R0
WINDOW 123 0 0 Left 0
WINDOW 39 0 0 Left 0
WINDOW 0 13 112 Left 2
WINDOW 3 -59 3 Left 2
SYMATTR InstName V3
SYMATTR Value PULSE(0 5.0 0 1e-9 1e-9 41.667m 83.333m 5)
SYMBOL res 560 656 R0
WINDOW 0 -55 36 Left 2
WINDOW 3 -52 69 Left 2
SYMATTR InstName R34
SYMATTR Value 51K
SYMBOL res 896 576 R180
WINDOW 0 36 76 Left 2
WINDOW 3 36 40 Left 2
SYMATTR InstName R33
SYMATTR Value 22.1
SYMBOL res 560 928 R0
SYMATTR InstName R35
SYMATTR Value 10K
SYMBOL npn 688 864 R0
WINDOW 0 95 44 Left 2
SYMATTR InstName Q32
SYMATTR Value SSTA06
SYMBOL diode 784 816 M90
WINDOW 0 0 32 VBottom 2
WINDOW 3 32 32 VTop 2
SYMATTR InstName D33
SYMATTR Value 1N4148
SYMBOL res 1008 576 R180
WINDOW 0 36 76 Left 2
WINDOW 3 36 40 Left 2
SYMATTR InstName R39
SYMATTR Value 1K
SYMBOL voltage 896 624 R0
WINDOW 0 40 47 Left 2
WINDOW 3 42 81 Left 2
WINDOW 123 0 0 Left 0
WINDOW 39 0 0 Left 0
SYMATTR InstName Vcc
SYMATTR Value 5
SYMBOL zener 208 -48 R180
WINDOW 0 48 35 Left 2
WINDOW 3 24 0 Left 2
SYMATTR InstName D34
SYMATTR Value 1N750
SYMBOL zener 592 864 R180
WINDOW 0 48 35 Left 2
WINDOW 3 24 0 Left 2
SYMATTR InstName D32
SYMATTR Value 1N750
SYMBOL voltage 1616 256 R0
WINDOW 123 0 0 Left 0
WINDOW 39 0 0 Left 0
SYMATTR InstName V4
SYMATTR Value 16.8
TEXT -264 648 Left 2 !.tran 0.160
TEXT 96 56 Left 2 ;U31
TEXT 328 304 Left 2 ;DT
TEXT -320 320 Left 2 ;P2_pin1_C
TEXT -304 112 Left 2 ;P2_pin2_R
TEXT 616 -112 Left 2 ;ATmega_pin2
TEXT 864 400 Left 2 ;K1G
TEXT 1224 424 Left 2 ;1GM
TEXT 1504 632 Left 2 ;ATmega_pin26
TEXT 1584 128 Left 2 ;C1
